           6
 Step:       51299 Time (fs):   37.225903133712713     
 O   0.10747791707318703       0.25449474171298758       -1.0882703450144424     
 O  -0.14606688245210706      -0.26010087755421479        1.1270982890780061     
 H  -0.11426964446095320        1.2843101443525642       -1.1868050359830595     
 H   0.57285361489896258       0.16403940600074352       -1.9624769765567440     
 H   0.19629106162647456      -0.58975863092842384        2.1196165104898497     
 H   -6.2430289636601294E-003 -0.81900048879046816       0.36897839593291787     
